50
Riociguat
C          0.27717       -0.56341       -0.05740
N         -0.79368       -1.38659       -0.03339
C         -1.97080       -0.72361        0.00932
C         -2.12223        0.65580        0.02854
C         -0.98364        1.46078        0.00402
C          0.26648        0.81929       -0.04503
C          1.64876        1.21028       -0.05868
C          2.17100        2.59218       -0.00435
N          3.41287        2.78243        0.46971
C          3.83934        4.04962        0.57962
N          5.05050        4.15713        1.26770
N          1.34114        3.57980       -0.38263
C          1.80671        4.83623       -0.29263
N          0.90055        5.79059       -0.76475
C          3.08159        5.15719        0.18544
N          3.56849        6.50368        0.25389
C          4.85490        6.83779       -0.32441
C          2.91130        7.53548        0.92566
O          3.32079        8.69492        0.92194
O          1.83268        7.13115        1.64966
C          1.18749        8.17817        2.37438
N          2.45049        0.11999       -0.11738
N          1.59204       -0.93075       -0.06542
C          2.09959       -2.29607        0.01182
C          2.30741       -2.71758        1.44419
C          3.24854       -2.07031        2.26081
C          3.36309       -2.40093        3.61306
C          2.55328       -3.39398        4.16230
C          1.64738       -4.07508        3.35161
C          1.53484       -3.73735        2.00487
F          0.66134       -4.41326        1.24522
H         -2.84825       -1.36731        0.03259
H         -3.11048        1.09994        0.06808
H         -1.06691        2.54267        0.03042
H          5.38422        3.20813        1.42874
H          5.73814        4.73942        0.82313
H          0.07220        5.28594       -1.07071
H          1.29855        6.34978       -1.50964
H          5.26420        6.02236       -0.92618
H          5.55261        7.11037        0.47521
H          4.73633        7.71206       -0.97557
H          0.21495        7.80838        2.70906
H          1.01769        9.06102        1.74814
H          1.78371        8.44165        3.25338
H          3.04255       -2.34158       -0.54526
H          1.38579       -2.94566       -0.50813
H          3.87725       -1.27940        1.85260
H          4.07386       -1.86812        4.24040
H          2.62686       -3.63343        5.21987
H          1.01776       -4.85821        3.76203
