47
Vericiguat
C          3.36729       -0.50445       -1.61822
O          3.72608       -0.90155       -0.29352
C          4.33212        0.08163        0.42318
O          4.55218        1.20383       -0.00680
N          4.69200       -0.43084        1.63571
C          5.38666        0.30611        2.62078
C          5.00024        1.56785        3.07207
N          5.65733        2.21298        4.04339
C          6.71163        1.58205        4.59225
N          7.16819        0.36537        4.22792
C          6.49826       -0.24766        3.24978
N          7.03811       -1.47561        2.84007
C          7.35403        2.24480        5.74415
N          8.07179        1.56517        6.66518
N          8.42433        2.49818        7.58201
C          7.96619        3.75355        7.28528
C          7.26739        3.63105        6.09078
C          6.66710        4.78976        5.56395
C          6.81263        5.96515        6.28923
C          7.52992        5.95755        7.47522
N          8.12948        4.87225        8.02525
F          6.25055        7.09709        5.84606
C          9.03289        2.08626        8.84018
C         10.53385        1.96583        8.78539
C         11.17673        1.11005        7.87742
C         12.56208        0.92583        7.93182
C         13.32254        1.59008        8.89359
C         12.69891        2.45138        9.79268
C         11.31891        2.63086        9.73250
F         10.74059        3.43783       10.63352
N          3.89671        2.24501        2.56893
H          2.68385       -1.25316       -2.02627
H          4.26590       -0.47077       -2.24076
H          2.85480        0.46399       -1.62632
H          4.84551       -1.42668        1.59615
H          7.85451       -1.63853        3.42892
H          6.37856       -2.23773        2.91571
H          6.10014        4.77776        4.63982
H          7.63899        6.87871        8.04105
H          8.60147        1.11542        9.11187
H          8.71145        2.79908        9.60789
H         10.60086        0.56380        7.13108
H         13.04539        0.25006        7.22974
H         14.39649        1.43054        8.94637
H         13.27445        2.97246       10.55129
H          3.07179        1.66859        2.47137
H          3.74528        3.10139        3.08669
