Riociguat
 OpenBabel07242401003D

 50 53  0  0  0  0  0  0  0  0999 V2000
    0.2723   -0.5628   -0.0707 C   0  0  0  0  0  0  0  0  0  0  0  0
   -0.7929   -1.3903   -0.0551 N   0  0  0  0  0  0  0  0  0  0  0  0
   -1.9731   -0.7342   -0.0004 C   0  0  0  0  0  0  0  0  0  0  0  0
   -2.1315    0.6442    0.0301 C   0  0  0  0  0  0  0  0  0  0  0  0
   -0.9958    1.4546    0.0060 C   0  0  0  0  0  0  0  0  0  0  0  0
    0.2587    0.8248   -0.0478 C   0  0  0  0  0  0  0  0  0  0  0  0
    1.6376    1.2155   -0.0565 C   0  0  0  0  0  0  0  0  0  0  0  0
    2.1576    2.5951    0.0114 C   0  0  0  0  0  0  0  0  0  0  0  0
    3.4013    2.7754    0.4895 N   0  0  0  0  0  0  0  0  0  0  0  0
    3.8370    4.0388    0.5965 C   0  0  0  0  0  0  0  0  0  0  0  0
    5.0620    4.1470    1.2584 N   0  0  0  0  0  0  0  0  0  0  0  0
    1.3320    3.5850   -0.3721 N   0  0  0  0  0  0  0  0  0  0  0  0
    1.8044    4.8372   -0.2796 C   0  0  0  0  0  0  0  0  0  0  0  0
    0.9165    5.8096   -0.7505 N   0  0  0  0  0  0  0  0  0  0  0  0
    3.0780    5.1454    0.2092 C   0  0  0  0  0  0  0  0  0  0  0  0
    3.5664    6.4888    0.2794 N   0  0  0  0  0  0  0  0  0  0  0  0
    4.8529    6.8142   -0.3014 C   0  0  0  0  0  0  0  0  0  0  0  0
    2.9137    7.5104    0.9653 C   0  0  0  0  0  0  0  0  0  0  0  0
    3.3204    8.6708    0.9678 O   0  0  0  0  0  0  0  0  0  0  0  0
    1.8410    7.0972    1.6943 O   0  0  0  0  0  0  0  0  0  0  0  0
    1.1951    8.1378    2.4275 C   0  0  0  0  0  0  0  0  0  0  0  0
    2.4431    0.1302   -0.1199 N   0  0  0  0  0  0  0  0  0  0  0  0
    1.5898   -0.9231   -0.0751 N   0  0  0  0  0  0  0  0  0  0  0  0
    2.1038   -2.2844    0.0069 C   0  0  0  0  0  0  0  0  0  0  0  0
    2.3047   -2.6993    1.4413 C   0  0  0  0  0  0  0  0  0  0  0  0
    3.2465   -2.0505    2.2563 C   0  0  0  0  0  0  0  0  0  0  0  0
    3.3701   -2.3864    3.6057 C   0  0  0  0  0  0  0  0  0  0  0  0
    2.5665   -3.3843    4.1549 C   0  0  0  0  0  0  0  0  0  0  0  0
    1.6527   -4.0599    3.3481 C   0  0  0  0  0  0  0  0  0  0  0  0
    1.5307   -3.7167    2.0037 C   0  0  0  0  0  0  0  0  0  0  0  0
    0.6500   -4.3870    1.2476 F   0  0  0  0  0  0  0  0  0  0  0  0
   -2.8464   -1.3831    0.0249 H   0  0  0  0  0  0  0  0  0  0  0  0
   -3.1227    1.0811    0.0780 H   0  0  0  0  0  0  0  0  0  0  0  0
   -1.0845    2.5371    0.0393 H   0  0  0  0  0  0  0  0  0  0  0  0
    5.3977    3.1994    1.4194 H   0  0  0  0  0  0  0  0  0  0  0  0
    5.7444    4.7162    0.7826 H   0  0  0  0  0  0  0  0  0  0  0  0
    0.0875    5.3315   -1.0920 H   0  0  0  0  0  0  0  0  0  0  0  0
    1.3410    6.3987   -1.4569 H   0  0  0  0  0  0  0  0  0  0  0  0
    5.2403    6.0047   -0.9262 H   0  0  0  0  0  0  0  0  0  0  0  0
    5.5602    7.0523    0.5001 H   0  0  0  0  0  0  0  0  0  0  0  0
    4.7457    7.7041   -0.9319 H   0  0  0  0  0  0  0  0  0  0  0  0
    0.2228    7.7657    2.7604 H   0  0  0  0  0  0  0  0  0  0  0  0
    1.0242    9.0242    1.8068 H   0  0  0  0  0  0  0  0  0  0  0  0
    1.7922    8.3944    3.3079 H   0  0  0  0  0  0  0  0  0  0  0  0
    3.0512   -2.3243   -0.5425 H   0  0  0  0  0  0  0  0  0  0  0  0
    1.3985   -2.9387   -0.5179 H   0  0  0  0  0  0  0  0  0  0  0  0
    3.8709   -1.2566    1.8469 H   0  0  0  0  0  0  0  0  0  0  0  0
    4.0851   -1.8560    4.2302 H   0  0  0  0  0  0  0  0  0  0  0  0
    2.6507   -3.6317    5.2098 H   0  0  0  0  0  0  0  0  0  0  0  0
    1.0254   -4.8439    3.7597 H   0  0  0  0  0  0  0  0  0  0  0  0
  1  2  2  0  0  0  0
  1  6  1  0  0  0  0
  1 23  1  0  0  0  0
  2  3  1  0  0  0  0
  3  4  2  0  0  0  0
  3 32  1  0  0  0  0
  4  5  1  0  0  0  0
  4 33  1  0  0  0  0
  5  6  2  0  0  0  0
  5 34  1  0  0  0  0
  6  7  1  0  0  0  0
  7  8  1  0  0  0  0
  7 22  2  0  0  0  0
  8  9  2  0  0  0  0
  8 12  1  0  0  0  0
  9 10  1  0  0  0  0
 10 11  1  0  0  0  0
 10 15  2  0  0  0  0
 11 35  1  0  0  0  0
 11 36  1  0  0  0  0
 12 13  2  0  0  0  0
 13 14  1  0  0  0  0
 13 15  1  0  0  0  0
 14 37  1  0  0  0  0
 14 38  1  0  0  0  0
 15 16  1  0  0  0  0
 16 17  1  0  0  0  0
 16 18  1  0  0  0  0
 17 39  1  0  0  0  0
 17 40  1  0  0  0  0
 17 41  1  0  0  0  0
 18 19  2  0  0  0  0
 18 20  1  0  0  0  0
 20 21  1  0  0  0  0
 21 42  1  0  0  0  0
 21 43  1  0  0  0  0
 21 44  1  0  0  0  0
 22 23  1  0  0  0  0
 23 24  1  0  0  0  0
 24 25  1  0  0  0  0
 24 45  1  0  0  0  0
 24 46  1  0  0  0  0
 25 26  1  0  0  0  0
 25 30  2  0  0  0  0
 26 27  2  0  0  0  0
 26 47  1  0  0  0  0
 27 28  1  0  0  0  0
 27 48  1  0  0  0  0
 28 29  2  0  0  0  0
 28 49  1  0  0  0  0
 29 30  1  0  0  0  0
 29 50  1  0  0  0  0
 30 31  1  0  0  0  0
M  END
$$$$
